@<TRIPOS>MOLECULE
DOG
   62    66     1     0     0
SMALL
resp
@<TRIPOS>ATOM
      1 O23          7.2640     0.6350     0.3660 o          1 DOG     -0.603790
      2 C23          6.1540     0.2200     0.1420 c          1 DOG      0.913720
      3 C22          4.9650     0.9130    -0.3940 ce         1 DOG     -0.552430
      4 O21          5.7960    -1.0930     0.3690 os         1 DOG     -0.543340
      5 C21          4.4240    -1.2860     0.0110 c3         1 DOG      0.253200
      6 C20          3.9340     0.0590    -0.4810 c2         1 DOG      0.088750
      7 C17          2.5540     0.3660    -0.9980 c3         1 DOG     -0.002670
      8 C16          2.0410    -0.6750    -2.0480 c3         1 DOG     -0.263190
      9 C13          1.4010     0.4740     0.0890 c3         1 DOG      0.635860
     10 C18          1.9120     0.6990     1.5210 c3         1 DOG     -0.416180
     11 C12          0.4900     1.6560    -0.3400 c3         1 DOG      0.078140
     12 O12          1.2290     2.8590    -0.1190 oh         1 DOG     -0.703970
     13 C14          0.5950    -0.8510    -0.0860 c3         1 DOG     -0.051480
     14 C15          0.6220    -1.0940    -1.6100 c3         1 DOG      0.108190
     15 O14          1.4070    -1.8660     0.5410 oh         1 DOG     -0.712600
     16 C8          -0.8080    -0.8380     0.5810 c3         1 DOG      0.042480
     17 C7          -1.5700    -2.1580     0.3480 c3         1 DOG     -0.040690
     18 C9          -1.6660     0.3920     0.1730 c3         1 DOG      0.040630
     19 C11         -0.8550     1.6840     0.3920 c3         1 DOG     -0.475450
     20 C10         -3.0760     0.4040     0.8680 c3         1 DOG      0.163710
     21 C19         -2.9500     0.6320     2.3920 c3         1 DOG     -0.573120
     22 C5          -3.8090    -0.9540     0.6040 c3         1 DOG      0.141680
     23 C6          -2.9460    -2.1570     1.0260 c3         1 DOG     -0.331830
     24 C4          -4.2990    -1.1120    -0.8530 c3         1 DOG      0.042980
     25 C3          -5.1640     0.0520    -1.3340 c3         1 DOG      0.272340
     26 O32         -6.3830     0.0000    -0.5830 oh         1 DOG     -0.710140
     27 C2          -4.4320     1.3850    -1.1280 c3         1 DOG     -0.171740
     28 C1          -3.9800     1.5490     0.3280 c3         1 DOG     -0.056550
     29 H1           4.9820     1.9620    -0.6620 ha         1 DOG      0.218680
     30 H2           3.8680    -1.6470     0.8800 h1         1 DOG      0.060400
     31 H3           4.3750    -2.0640    -0.7600 h1         1 DOG      0.060400
     32 H4           2.6320     1.3530    -1.4600 hc         1 DOG      0.057230
     33 H5           2.6940    -1.5500    -2.0730 hc         1 DOG      0.070310
     34 H6           2.0490    -0.2540    -3.0590 hc         1 DOG      0.070310
     35 H7           1.0840     0.8150     2.2280 hc         1 DOG      0.103440
     36 H8           2.5110    -0.1450     1.8640 hc         1 DOG      0.103440
     37 H9           2.5160     1.6060     1.5680 hc         1 DOG      0.103440
     38 H10          0.2860     1.5600    -1.4200 h1         1 DOG      0.036850
     39 H11          0.6880     3.5980    -0.4370 ho         1 DOG      0.444350
     40 H12          0.4090    -2.1410    -1.8550 hc         1 DOG     -0.017340
     41 H13         -0.1430    -0.4960    -2.1160 hc         1 DOG     -0.017340
     42 H14          1.0310    -2.7280     0.3040 ho         1 DOG      0.443700
     43 H15         -0.6050    -0.7670     1.6580 hc         1 DOG      0.058100
     44 H16         -0.9860    -3.0040     0.7360 hc         1 DOG      0.031780
     45 H17         -1.6900    -2.3330    -0.7290 hc         1 DOG      0.031780
     46 H18         -1.8490     0.3110    -0.9080 hc         1 DOG      0.078700
     47 H19         -1.4190     2.5530     0.0280 hc         1 DOG      0.151810
     48 H20         -0.6740     1.8570     1.4580 hc         1 DOG      0.151810
     49 H21         -3.9280     0.5080     2.8710 hc         1 DOG      0.137930
     50 H22         -2.2570    -0.0600     2.8790 hc         1 DOG      0.137930
     51 H23         -2.6080     1.6490     2.6160 hc         1 DOG      0.137930
     52 H24         -4.7110    -0.9490     1.2300 hc         1 DOG      0.041280
     53 H25         -2.8100    -2.1520     2.1150 hc         1 DOG      0.095400
     54 H26         -3.4760    -3.0890     0.7900 hc         1 DOG      0.095400
     55 H27         -4.8810    -2.0380    -0.9330 hc         1 DOG     -0.016620
     56 H28         -3.4560    -1.2110    -1.5480 hc         1 DOG     -0.016620
     57 H29         -5.3880    -0.0840    -2.4050 h1         1 DOG      0.002960
     58 H30         -6.9330     0.7500    -0.8610 ho         1 DOG      0.433910
     59 H31         -5.0920     2.2190    -1.4090 hc         1 DOG      0.028770
     60 H32         -3.5790     1.4310    -1.8190 hc         1 DOG      0.028770
     61 H33         -3.4880     2.5190     0.4630 hc         1 DOG      0.039300
     62 H34         -4.8800     1.5760     0.9550 hc         1 DOG      0.039300
@<TRIPOS>BOND
     1     1     2 2
     2     2     3 1
     3     2     4 1
     4     3     6 2
     5     3    29 1
     6     4     5 1
     7     5     6 1
     8     5    30 1
     9     5    31 1
    10     6     7 1
    11     7     8 1
    12     7     9 1
    13     7    32 1
    14     8    14 1
    15     8    33 1
    16     8    34 1
    17     9    10 1
    18     9    11 1
    19     9    13 1
    20    10    35 1
    21    10    36 1
    22    10    37 1
    23    11    12 1
    24    11    19 1
    25    11    38 1
    26    12    39 1
    27    13    14 1
    28    13    15 1
    29    13    16 1
    30    14    40 1
    31    14    41 1
    32    15    42 1
    33    16    17 1
    34    16    18 1
    35    16    43 1
    36    17    23 1
    37    17    44 1
    38    17    45 1
    39    18    19 1
    40    18    20 1
    41    18    46 1
    42    19    47 1
    43    19    48 1
    44    20    21 1
    45    20    22 1
    46    20    28 1
    47    21    49 1
    48    21    50 1
    49    21    51 1
    50    22    23 1
    51    22    24 1
    52    22    52 1
    53    23    53 1
    54    23    54 1
    55    24    25 1
    56    24    55 1
    57    24    56 1
    58    25    26 1
    59    25    27 1
    60    25    57 1
    61    26    58 1
    62    27    28 1
    63    27    59 1
    64    27    60 1
    65    28    61 1
    66    28    62 1
@<TRIPOS>SUBSTRUCTURE
     1 DOG         1 TEMP              0 ****  ****    0 ROOT
